10

  O         -6.311309       -5.532314       -0.465320       
  C         -7.260238       -5.417400        0.432049       
  O         -7.345047       -4.170005        0.997326       
  C         -6.302795       -3.379001        0.350445       
  C         -5.446716       -4.423542       -0.336933       
  O         -7.870834       -6.396057        0.818066       
  H         -5.065063       -4.206253       -1.341663       
  H         -6.751815       -2.767502       -0.441364       
  H         -5.703414       -2.825454        1.136486       
  H         -4.593200       -4.729328        0.253094       
