15
  
  O         -3.708399       -0.512250       -8.457154       
  S         -2.646929       -1.427778       -8.136353       
  N         -2.480158       -2.637585       -9.170381       
  S         -1.350382       -2.608291      -10.239579       
  O         -1.514887       -1.569331      -11.228745       
  C         -3.532907       -2.207978       -6.746355       
  O         -1.446413       -0.973296       -7.477418       
  C         -1.634882       -4.149609      -11.128861       
  O         -0.044496       -2.818968       -9.683488       
  F         -4.002649       -1.287877       -5.888460       
  F         -4.640223       -2.783314       -7.233644       
  F         -2.856752       -3.082181       -6.039842       
  F         -2.787813       -4.122439      -11.728929       
  F         -0.702707       -4.404723      -12.006227       
  F         -1.646311       -5.218104      -10.269288       

